data_structure_charged

_audit_creation_method RASPA-1.0
_audit_creation_date 2023-5-10
_audit_author_name 'guoxiang'

_cell_length_a    17.348
_cell_length_b    17.348
_cell_length_c    27.838
_cell_angle_alpha 90
_cell_angle_beta  90
_cell_angle_gamma 90
_cell_volume      8377.93

_symmetry_cell_setting          triclinic
_symmetry_space_group_name_Hall 'P 1'
_symmetry_space_group_name_H-M  'P 1'
_symmetry_Int_Tables_number     1

_symmetry_equiv_pos_as_xyz 'x,y,z'

loop_
_atom_site_label
_atom_site_type_symbol
_atom_site_fract_x
_atom_site_fract_y
_atom_site_fract_z
_atom_site_charge
Si0      Si     0.126700000000     0.215400000000     0.055700000000     0          
Si1      Si     0.284600000000     0.126700000000     0.055700000000     0          
Si2      Si     0.373300000000     0.284600000000     0.055700000000     0          
Si3      Si     0.215400000000     0.373300000000     0.055700000000     0          
Si4      Si     0.373300000000     0.215400000000     0.305700000000     0          
Si5      Si     0.215400000000     0.126700000000     0.305700000000     0          
Si6      Si     0.126700000000     0.284600000000     0.305700000000     0          
Si7      Si     0.284600000000     0.373300000000     0.305700000000     0          
Si8      Si     0.373300000000     0.284600000000     0.444300000000     0          
Si9      Si     0.215400000000     0.373300000000     0.444300000000     0          
Si10     Si     0.126700000000     0.215400000000     0.444300000000     0          
Si11     Si     0.284600000000     0.126700000000     0.444300000000     0          
Si12     Si     0.126700000000     0.284600000000     0.194300000000     0          
Si13     Si     0.284600000000     0.373300000000     0.194300000000     0          
Si14     Si     0.373300000000     0.215400000000     0.194300000000     0          
Si15     Si     0.215400000000     0.126700000000     0.194300000000     0          
Si16     Si     0.000000000000     0.250000000000     0.125000000000     0          
Si17     Si     0.250000000000     0.000000000000     0.125000000000     0          
Si18     Si     0.000000000000     0.250000000000     0.375000000000     0          
Si19     Si     0.250000000000     0.000000000000     0.375000000000     0          
O20      O      0.054450000000     0.303700000000     0.158900000000     0          
O21      O      0.196300000000     0.054450000000     0.158900000000     0          
O22      O      0.445550000000     0.196300000000     0.158900000000     0          
O23      O      0.303700000000     0.445550000000     0.158900000000     0          
O24      O      0.445550000000     0.303700000000     0.408900000000     0          
O25      O      0.303700000000     0.054450000000     0.408900000000     0          
O26      O      0.054450000000     0.196300000000     0.408900000000     0          
O27      O      0.196300000000     0.445550000000     0.408900000000     0          
O28      O      0.445550000000     0.196300000000     0.341100000000     0          
O29      O      0.303700000000     0.445550000000     0.341100000000     0          
O30      O      0.054450000000     0.303700000000     0.341100000000     0          
O31      O      0.196300000000     0.054450000000     0.341100000000     0          
O32      O      0.054450000000     0.196300000000     0.091100000000     0          
O33      O      0.196300000000     0.445550000000     0.091100000000     0          
O34      O      0.445550000000     0.303700000000     0.091100000000     0          
O35      O      0.303700000000     0.054450000000     0.091100000000     0          
O36      O      0.099250000000     0.207750000000     0.000000000000     0          
O37      O      0.292250000000     0.099250000000     0.000000000000     0          
O38      O      0.400750000000     0.292250000000     0.000000000000     0          
O39      O      0.207750000000     0.400750000000     0.000000000000     0          
O40      O      0.400750000000     0.207750000000     0.250000000000     0          
O41      O      0.207750000000     0.099250000000     0.250000000000     0          
O42      O      0.099250000000     0.292250000000     0.250000000000     0          
O43      O      0.292250000000     0.400750000000     0.250000000000     0          
O44      O      0.196900000000     0.155500000000     0.066050000000     0          
O45      O      0.344500000000     0.196900000000     0.066050000000     0          
O46      O      0.303100000000     0.344500000000     0.066050000000     0          
O47      O      0.155500000000     0.303100000000     0.066050000000     0          
O48      O      0.303100000000     0.155500000000     0.316050000000     0          
O49      O      0.155500000000     0.196900000000     0.316050000000     0          
O50      O      0.196900000000     0.344500000000     0.316050000000     0          
O51      O      0.344500000000     0.303100000000     0.316050000000     0          
O52      O      0.303100000000     0.344500000000     0.433950000000     0          
O53      O      0.155500000000     0.303100000000     0.433950000000     0          
O54      O      0.196900000000     0.155500000000     0.433950000000     0          
O55      O      0.344500000000     0.196900000000     0.433950000000     0          
O56      O      0.196900000000     0.344500000000     0.183950000000     0          
O57      O      0.344500000000     0.303100000000     0.183950000000     0          
O58      O      0.303100000000     0.155500000000     0.183950000000     0          
O59      O      0.155500000000     0.196900000000     0.183950000000     0          
Si0      Si     0.126700000000     0.215400000000     0.555700000000     0          
Si1      Si     0.284600000000     0.126700000000     0.555700000000     0          
Si2      Si     0.373300000000     0.284600000000     0.555700000000     0          
Si3      Si     0.215400000000     0.373300000000     0.555700000000     0          
Si4      Si     0.373300000000     0.215400000000     0.805700000000     0          
Si5      Si     0.215400000000     0.126700000000     0.805700000000     0          
Si6      Si     0.126700000000     0.284600000000     0.805700000000     0          
Si7      Si     0.284600000000     0.373300000000     0.805700000000     0          
Si8      Si     0.373300000000     0.284600000000     0.944300000000     0          
Si9      Si     0.215400000000     0.373300000000     0.944300000000     0          
Si10     Si     0.126700000000     0.215400000000     0.944300000000     0          
Si11     Si     0.284600000000     0.126700000000     0.944300000000     0          
Si12     Si     0.126700000000     0.284600000000     0.694300000000     0          
Si13     Si     0.284600000000     0.373300000000     0.694300000000     0          
Si14     Si     0.373300000000     0.215400000000     0.694300000000     0          
Si15     Si     0.215400000000     0.126700000000     0.694300000000     0          
Si16     Si     0.000000000000     0.250000000000     0.625000000000     0          
Si17     Si     0.250000000000     0.000000000000     0.625000000000     0          
Si18     Si     0.000000000000     0.250000000000     0.875000000000     0          
Si19     Si     0.250000000000     0.000000000000     0.875000000000     0          
O20      O      0.054450000000     0.303700000000     0.658900000000     0          
O21      O      0.196300000000     0.054450000000     0.658900000000     0          
O22      O      0.445550000000     0.196300000000     0.658900000000     0          
O23      O      0.303700000000     0.445550000000     0.658900000000     0          
O24      O      0.445550000000     0.303700000000     0.908900000000     0          
O25      O      0.303700000000     0.054450000000     0.908900000000     0          
O26      O      0.054450000000     0.196300000000     0.908900000000     0          
O27      O      0.196300000000     0.445550000000     0.908900000000     0          
O28      O      0.445550000000     0.196300000000     0.841100000000     0          
O29      O      0.303700000000     0.445550000000     0.841100000000     0          
O30      O      0.054450000000     0.303700000000     0.841100000000     0          
O31      O      0.196300000000     0.054450000000     0.841100000000     0          
O32      O      0.054450000000     0.196300000000     0.591100000000     0          
O33      O      0.196300000000     0.445550000000     0.591100000000     0          
O34      O      0.445550000000     0.303700000000     0.591100000000     0          
O35      O      0.303700000000     0.054450000000     0.591100000000     0          
O36      O      0.099250000000     0.207750000000     0.500000000000     0          
O37      O      0.292250000000     0.099250000000     0.500000000000     0          
O38      O      0.400750000000     0.292250000000     0.500000000000     0          
O39      O      0.207750000000     0.400750000000     0.500000000000     0          
O40      O      0.400750000000     0.207750000000     0.750000000000     0          
O41      O      0.207750000000     0.099250000000     0.750000000000     0          
O42      O      0.099250000000     0.292250000000     0.750000000000     0          
O43      O      0.292250000000     0.400750000000     0.750000000000     0          
O44      O      0.196900000000     0.155500000000     0.566050000000     0          
O45      O      0.344500000000     0.196900000000     0.566050000000     0          
O46      O      0.303100000000     0.344500000000     0.566050000000     0          
O47      O      0.155500000000     0.303100000000     0.566050000000     0          
O48      O      0.303100000000     0.155500000000     0.816050000000     0          
O49      O      0.155500000000     0.196900000000     0.816050000000     0          
O50      O      0.196900000000     0.344500000000     0.816050000000     0          
O51      O      0.344500000000     0.303100000000     0.816050000000     0          
O52      O      0.303100000000     0.344500000000     0.933950000000     0          
O53      O      0.155500000000     0.303100000000     0.933950000000     0          
O54      O      0.196900000000     0.155500000000     0.933950000000     0          
O55      O      0.344500000000     0.196900000000     0.933950000000     0          
O56      O      0.196900000000     0.344500000000     0.683950000000     0          
O57      O      0.344500000000     0.303100000000     0.683950000000     0          
O58      O      0.303100000000     0.155500000000     0.683950000000     0          
O59      O      0.155500000000     0.196900000000     0.683950000000     0          
Si0      Si     0.126700000000     0.715400000000     0.055700000000     0          
Si1      Si     0.284600000000     0.626700000000     0.055700000000     0          
Si2      Si     0.373300000000     0.784600000000     0.055700000000     0          
Si3      Si     0.215400000000     0.873300000000     0.055700000000     0          
Si4      Si     0.373300000000     0.715400000000     0.305700000000     0          
Si5      Si     0.215400000000     0.626700000000     0.305700000000     0          
Si6      Si     0.126700000000     0.784600000000     0.305700000000     0          
Si7      Si     0.284600000000     0.873300000000     0.305700000000     0          
Si8      Si     0.373300000000     0.784600000000     0.444300000000     0          
Si9      Si     0.215400000000     0.873300000000     0.444300000000     0          
Si10     Si     0.126700000000     0.715400000000     0.444300000000     0          
Si11     Si     0.284600000000     0.626700000000     0.444300000000     0          
Si12     Si     0.126700000000     0.784600000000     0.194300000000     0          
Si13     Si     0.284600000000     0.873300000000     0.194300000000     0          
Si14     Si     0.373300000000     0.715400000000     0.194300000000     0          
Si15     Si     0.215400000000     0.626700000000     0.194300000000     0          
Si16     Si     0.000000000000     0.750000000000     0.125000000000     0          
Si17     Si     0.250000000000     0.500000000000     0.125000000000     0          
Si18     Si     0.000000000000     0.750000000000     0.375000000000     0          
Si19     Si     0.250000000000     0.500000000000     0.375000000000     0          
O20      O      0.054450000000     0.803700000000     0.158900000000     0          
O21      O      0.196300000000     0.554450000000     0.158900000000     0          
O22      O      0.445550000000     0.696300000000     0.158900000000     0          
O23      O      0.303700000000     0.945550000000     0.158900000000     0          
O24      O      0.445550000000     0.803700000000     0.408900000000     0          
O25      O      0.303700000000     0.554450000000     0.408900000000     0          
O26      O      0.054450000000     0.696300000000     0.408900000000     0          
O27      O      0.196300000000     0.945550000000     0.408900000000     0          
O28      O      0.445550000000     0.696300000000     0.341100000000     0          
O29      O      0.303700000000     0.945550000000     0.341100000000     0          
O30      O      0.054450000000     0.803700000000     0.341100000000     0          
O31      O      0.196300000000     0.554450000000     0.341100000000     0          
O32      O      0.054450000000     0.696300000000     0.091100000000     0          
O33      O      0.196300000000     0.945550000000     0.091100000000     0          
O34      O      0.445550000000     0.803700000000     0.091100000000     0          
O35      O      0.303700000000     0.554450000000     0.091100000000     0          
O36      O      0.099250000000     0.707750000000     0.000000000000     0          
O37      O      0.292250000000     0.599250000000     0.000000000000     0          
O38      O      0.400750000000     0.792250000000     0.000000000000     0          
O39      O      0.207750000000     0.900750000000     0.000000000000     0          
O40      O      0.400750000000     0.707750000000     0.250000000000     0          
O41      O      0.207750000000     0.599250000000     0.250000000000     0          
O42      O      0.099250000000     0.792250000000     0.250000000000     0          
O43      O      0.292250000000     0.900750000000     0.250000000000     0          
O44      O      0.196900000000     0.655500000000     0.066050000000     0          
O45      O      0.344500000000     0.696900000000     0.066050000000     0          
O46      O      0.303100000000     0.844500000000     0.066050000000     0          
O47      O      0.155500000000     0.803100000000     0.066050000000     0          
O48      O      0.303100000000     0.655500000000     0.316050000000     0          
O49      O      0.155500000000     0.696900000000     0.316050000000     0          
O50      O      0.196900000000     0.844500000000     0.316050000000     0          
O51      O      0.344500000000     0.803100000000     0.316050000000     0          
O52      O      0.303100000000     0.844500000000     0.433950000000     0          
O53      O      0.155500000000     0.803100000000     0.433950000000     0          
O54      O      0.196900000000     0.655500000000     0.433950000000     0          
O55      O      0.344500000000     0.696900000000     0.433950000000     0          
O56      O      0.196900000000     0.844500000000     0.183950000000     0          
O57      O      0.344500000000     0.803100000000     0.183950000000     0          
O58      O      0.303100000000     0.655500000000     0.183950000000     0          
O59      O      0.155500000000     0.696900000000     0.183950000000     0          
Si0      Si     0.126700000000     0.715400000000     0.555700000000     0          
Si1      Si     0.284600000000     0.626700000000     0.555700000000     0          
Si2      Si     0.373300000000     0.784600000000     0.555700000000     0          
Si3      Si     0.215400000000     0.873300000000     0.555700000000     0          
Si4      Si     0.373300000000     0.715400000000     0.805700000000     0          
Si5      Si     0.215400000000     0.626700000000     0.805700000000     0          
Si6      Si     0.126700000000     0.784600000000     0.805700000000     0          
Si7      Si     0.284600000000     0.873300000000     0.805700000000     0          
Si8      Si     0.373300000000     0.784600000000     0.944300000000     0          
Si9      Si     0.215400000000     0.873300000000     0.944300000000     0          
Si10     Si     0.126700000000     0.715400000000     0.944300000000     0          
Si11     Si     0.284600000000     0.626700000000     0.944300000000     0          
Si12     Si     0.126700000000     0.784600000000     0.694300000000     0          
Si13     Si     0.284600000000     0.873300000000     0.694300000000     0          
Si14     Si     0.373300000000     0.715400000000     0.694300000000     0          
Si15     Si     0.215400000000     0.626700000000     0.694300000000     0          
Si16     Si     0.000000000000     0.750000000000     0.625000000000     0          
Si17     Si     0.250000000000     0.500000000000     0.625000000000     0          
Si18     Si     0.000000000000     0.750000000000     0.875000000000     0          
Si19     Si     0.250000000000     0.500000000000     0.875000000000     0          
O20      O      0.054450000000     0.803700000000     0.658900000000     0          
O21      O      0.196300000000     0.554450000000     0.658900000000     0          
O22      O      0.445550000000     0.696300000000     0.658900000000     0          
O23      O      0.303700000000     0.945550000000     0.658900000000     0          
O24      O      0.445550000000     0.803700000000     0.908900000000     0          
O25      O      0.303700000000     0.554450000000     0.908900000000     0          
O26      O      0.054450000000     0.696300000000     0.908900000000     0          
O27      O      0.196300000000     0.945550000000     0.908900000000     0          
O28      O      0.445550000000     0.696300000000     0.841100000000     0          
O29      O      0.303700000000     0.945550000000     0.841100000000     0          
O30      O      0.054450000000     0.803700000000     0.841100000000     0          
O31      O      0.196300000000     0.554450000000     0.841100000000     0          
O32      O      0.054450000000     0.696300000000     0.591100000000     0          
O33      O      0.196300000000     0.945550000000     0.591100000000     0          
O34      O      0.445550000000     0.803700000000     0.591100000000     0          
O35      O      0.303700000000     0.554450000000     0.591100000000     0          
O36      O      0.099250000000     0.707750000000     0.500000000000     0          
O37      O      0.292250000000     0.599250000000     0.500000000000     0          
O38      O      0.400750000000     0.792250000000     0.500000000000     0          
O39      O      0.207750000000     0.900750000000     0.500000000000     0          
O40      O      0.400750000000     0.707750000000     0.750000000000     0          
O41      O      0.207750000000     0.599250000000     0.750000000000     0          
O42      O      0.099250000000     0.792250000000     0.750000000000     0          
O43      O      0.292250000000     0.900750000000     0.750000000000     0          
O44      O      0.196900000000     0.655500000000     0.566050000000     0          
O45      O      0.344500000000     0.696900000000     0.566050000000     0          
O46      O      0.303100000000     0.844500000000     0.566050000000     0          
O47      O      0.155500000000     0.803100000000     0.566050000000     0          
O48      O      0.303100000000     0.655500000000     0.816050000000     0          
O49      O      0.155500000000     0.696900000000     0.816050000000     0          
O50      O      0.196900000000     0.844500000000     0.816050000000     0          
O51      O      0.344500000000     0.803100000000     0.816050000000     0          
O52      O      0.303100000000     0.844500000000     0.933950000000     0          
O53      O      0.155500000000     0.803100000000     0.933950000000     0          
O54      O      0.196900000000     0.655500000000     0.933950000000     0          
O55      O      0.344500000000     0.696900000000     0.933950000000     0          
O56      O      0.196900000000     0.844500000000     0.683950000000     0          
O57      O      0.344500000000     0.803100000000     0.683950000000     0          
O58      O      0.303100000000     0.655500000000     0.683950000000     0          
O59      O      0.155500000000     0.696900000000     0.683950000000     0          
Si0      Si     0.626700000000     0.215400000000     0.055700000000     0          
Si1      Si     0.784600000000     0.126700000000     0.055700000000     0          
Si2      Si     0.873300000000     0.284600000000     0.055700000000     0          
Si3      Si     0.715400000000     0.373300000000     0.055700000000     0          
Si4      Si     0.873300000000     0.215400000000     0.305700000000     0          
Si5      Si     0.715400000000     0.126700000000     0.305700000000     0          
Si6      Si     0.626700000000     0.284600000000     0.305700000000     0          
Si7      Si     0.784600000000     0.373300000000     0.305700000000     0          
Si8      Si     0.873300000000     0.284600000000     0.444300000000     0          
Si9      Si     0.715400000000     0.373300000000     0.444300000000     0          
Si10     Si     0.626700000000     0.215400000000     0.444300000000     0          
Si11     Si     0.784600000000     0.126700000000     0.444300000000     0          
Si12     Si     0.626700000000     0.284600000000     0.194300000000     0          
Si13     Si     0.784600000000     0.373300000000     0.194300000000     0          
Si14     Si     0.873300000000     0.215400000000     0.194300000000     0          
Si15     Si     0.715400000000     0.126700000000     0.194300000000     0          
Si16     Si     0.500000000000     0.250000000000     0.125000000000     0          
Si17     Si     0.750000000000     0.000000000000     0.125000000000     0          
Si18     Si     0.500000000000     0.250000000000     0.375000000000     0          
Si19     Si     0.750000000000     0.000000000000     0.375000000000     0          
O20      O      0.554450000000     0.303700000000     0.158900000000     0          
O21      O      0.696300000000     0.054450000000     0.158900000000     0          
O22      O      0.945550000000     0.196300000000     0.158900000000     0          
O23      O      0.803700000000     0.445550000000     0.158900000000     0          
O24      O      0.945550000000     0.303700000000     0.408900000000     0          
O25      O      0.803700000000     0.054450000000     0.408900000000     0          
O26      O      0.554450000000     0.196300000000     0.408900000000     0          
O27      O      0.696300000000     0.445550000000     0.408900000000     0          
O28      O      0.945550000000     0.196300000000     0.341100000000     0          
O29      O      0.803700000000     0.445550000000     0.341100000000     0          
O30      O      0.554450000000     0.303700000000     0.341100000000     0          
O31      O      0.696300000000     0.054450000000     0.341100000000     0          
O32      O      0.554450000000     0.196300000000     0.091100000000     0          
O33      O      0.696300000000     0.445550000000     0.091100000000     0          
O34      O      0.945550000000     0.303700000000     0.091100000000     0          
O35      O      0.803700000000     0.054450000000     0.091100000000     0          
O36      O      0.599250000000     0.207750000000     0.000000000000     0          
O37      O      0.792250000000     0.099250000000     0.000000000000     0          
O38      O      0.900750000000     0.292250000000     0.000000000000     0          
O39      O      0.707750000000     0.400750000000     0.000000000000     0          
O40      O      0.900750000000     0.207750000000     0.250000000000     0          
O41      O      0.707750000000     0.099250000000     0.250000000000     0          
O42      O      0.599250000000     0.292250000000     0.250000000000     0          
O43      O      0.792250000000     0.400750000000     0.250000000000     0          
O44      O      0.696900000000     0.155500000000     0.066050000000     0          
O45      O      0.844500000000     0.196900000000     0.066050000000     0          
O46      O      0.803100000000     0.344500000000     0.066050000000     0          
O47      O      0.655500000000     0.303100000000     0.066050000000     0          
O48      O      0.803100000000     0.155500000000     0.316050000000     0          
O49      O      0.655500000000     0.196900000000     0.316050000000     0          
O50      O      0.696900000000     0.344500000000     0.316050000000     0          
O51      O      0.844500000000     0.303100000000     0.316050000000     0          
O52      O      0.803100000000     0.344500000000     0.433950000000     0          
O53      O      0.655500000000     0.303100000000     0.433950000000     0          
O54      O      0.696900000000     0.155500000000     0.433950000000     0          
O55      O      0.844500000000     0.196900000000     0.433950000000     0          
O56      O      0.696900000000     0.344500000000     0.183950000000     0          
O57      O      0.844500000000     0.303100000000     0.183950000000     0          
O58      O      0.803100000000     0.155500000000     0.183950000000     0          
O59      O      0.655500000000     0.196900000000     0.183950000000     0          
Si0      Si     0.626700000000     0.215400000000     0.555700000000     0          
Si1      Si     0.784600000000     0.126700000000     0.555700000000     0          
Si2      Si     0.873300000000     0.284600000000     0.555700000000     0          
Si3      Si     0.715400000000     0.373300000000     0.555700000000     0          
Si4      Si     0.873300000000     0.215400000000     0.805700000000     0          
Si5      Si     0.715400000000     0.126700000000     0.805700000000     0          
Si6      Si     0.626700000000     0.284600000000     0.805700000000     0          
Si7      Si     0.784600000000     0.373300000000     0.805700000000     0          
Si8      Si     0.873300000000     0.284600000000     0.944300000000     0          
Si9      Si     0.715400000000     0.373300000000     0.944300000000     0          
Si10     Si     0.626700000000     0.215400000000     0.944300000000     0          
Si11     Si     0.784600000000     0.126700000000     0.944300000000     0          
Si12     Si     0.626700000000     0.284600000000     0.694300000000     0          
Si13     Si     0.784600000000     0.373300000000     0.694300000000     0          
Si14     Si     0.873300000000     0.215400000000     0.694300000000     0          
Si15     Si     0.715400000000     0.126700000000     0.694300000000     0          
Si16     Si     0.500000000000     0.250000000000     0.625000000000     0          
Si17     Si     0.750000000000     0.000000000000     0.625000000000     0          
Si18     Si     0.500000000000     0.250000000000     0.875000000000     0          
Si19     Si     0.750000000000     0.000000000000     0.875000000000     0          
O20      O      0.554450000000     0.303700000000     0.658900000000     0          
O21      O      0.696300000000     0.054450000000     0.658900000000     0          
O22      O      0.945550000000     0.196300000000     0.658900000000     0          
O23      O      0.803700000000     0.445550000000     0.658900000000     0          
O24      O      0.945550000000     0.303700000000     0.908900000000     0          
O25      O      0.803700000000     0.054450000000     0.908900000000     0          
O26      O      0.554450000000     0.196300000000     0.908900000000     0          
O27      O      0.696300000000     0.445550000000     0.908900000000     0          
O28      O      0.945550000000     0.196300000000     0.841100000000     0          
O29      O      0.803700000000     0.445550000000     0.841100000000     0          
O30      O      0.554450000000     0.303700000000     0.841100000000     0          
O31      O      0.696300000000     0.054450000000     0.841100000000     0          
O32      O      0.554450000000     0.196300000000     0.591100000000     0          
O33      O      0.696300000000     0.445550000000     0.591100000000     0          
O34      O      0.945550000000     0.303700000000     0.591100000000     0          
O35      O      0.803700000000     0.054450000000     0.591100000000     0          
O36      O      0.599250000000     0.207750000000     0.500000000000     0          
O37      O      0.792250000000     0.099250000000     0.500000000000     0          
O38      O      0.900750000000     0.292250000000     0.500000000000     0          
O39      O      0.707750000000     0.400750000000     0.500000000000     0          
O40      O      0.900750000000     0.207750000000     0.750000000000     0          
O41      O      0.707750000000     0.099250000000     0.750000000000     0          
O42      O      0.599250000000     0.292250000000     0.750000000000     0          
O43      O      0.792250000000     0.400750000000     0.750000000000     0          
O44      O      0.696900000000     0.155500000000     0.566050000000     0          
O45      O      0.844500000000     0.196900000000     0.566050000000     0          
O46      O      0.803100000000     0.344500000000     0.566050000000     0          
O47      O      0.655500000000     0.303100000000     0.566050000000     0          
O48      O      0.803100000000     0.155500000000     0.816050000000     0          
O49      O      0.655500000000     0.196900000000     0.816050000000     0          
O50      O      0.696900000000     0.344500000000     0.816050000000     0          
O51      O      0.844500000000     0.303100000000     0.816050000000     0          
O52      O      0.803100000000     0.344500000000     0.933950000000     0          
O53      O      0.655500000000     0.303100000000     0.933950000000     0          
O54      O      0.696900000000     0.155500000000     0.933950000000     0          
O55      O      0.844500000000     0.196900000000     0.933950000000     0          
O56      O      0.696900000000     0.344500000000     0.683950000000     0          
O57      O      0.844500000000     0.303100000000     0.683950000000     0          
O58      O      0.803100000000     0.155500000000     0.683950000000     0          
O59      O      0.655500000000     0.196900000000     0.683950000000     0          
Si0      Si     0.626700000000     0.715400000000     0.055700000000     0          
Si1      Si     0.784600000000     0.626700000000     0.055700000000     0          
Si2      Si     0.873300000000     0.784600000000     0.055700000000     0          
Si3      Si     0.715400000000     0.873300000000     0.055700000000     0          
Si4      Si     0.873300000000     0.715400000000     0.305700000000     0          
Si5      Si     0.715400000000     0.626700000000     0.305700000000     0          
Si6      Si     0.626700000000     0.784600000000     0.305700000000     0          
Si7      Si     0.784600000000     0.873300000000     0.305700000000     0          
Si8      Si     0.873300000000     0.784600000000     0.444300000000     0          
Si9      Si     0.715400000000     0.873300000000     0.444300000000     0          
Si10     Si     0.626700000000     0.715400000000     0.444300000000     0          
Si11     Si     0.784600000000     0.626700000000     0.444300000000     0          
Si12     Si     0.626700000000     0.784600000000     0.194300000000     0          
Si13     Si     0.784600000000     0.873300000000     0.194300000000     0          
Si14     Si     0.873300000000     0.715400000000     0.194300000000     0          
Si15     Si     0.715400000000     0.626700000000     0.194300000000     0          
Si16     Si     0.500000000000     0.750000000000     0.125000000000     0          
Si17     Si     0.750000000000     0.500000000000     0.125000000000     0          
Si18     Si     0.500000000000     0.750000000000     0.375000000000     0          
Si19     Si     0.750000000000     0.500000000000     0.375000000000     0          
O20      O      0.554450000000     0.803700000000     0.158900000000     0          
O21      O      0.696300000000     0.554450000000     0.158900000000     0          
O22      O      0.945550000000     0.696300000000     0.158900000000     0          
O23      O      0.803700000000     0.945550000000     0.158900000000     0          
O24      O      0.945550000000     0.803700000000     0.408900000000     0          
O25      O      0.803700000000     0.554450000000     0.408900000000     0          
O26      O      0.554450000000     0.696300000000     0.408900000000     0          
O27      O      0.696300000000     0.945550000000     0.408900000000     0          
O28      O      0.945550000000     0.696300000000     0.341100000000     0          
O29      O      0.803700000000     0.945550000000     0.341100000000     0          
O30      O      0.554450000000     0.803700000000     0.341100000000     0          
O31      O      0.696300000000     0.554450000000     0.341100000000     0          
O32      O      0.554450000000     0.696300000000     0.091100000000     0          
O33      O      0.696300000000     0.945550000000     0.091100000000     0          
O34      O      0.945550000000     0.803700000000     0.091100000000     0          
O35      O      0.803700000000     0.554450000000     0.091100000000     0          
O36      O      0.599250000000     0.707750000000     0.000000000000     0          
O37      O      0.792250000000     0.599250000000     0.000000000000     0          
O38      O      0.900750000000     0.792250000000     0.000000000000     0          
O39      O      0.707750000000     0.900750000000     0.000000000000     0          
O40      O      0.900750000000     0.707750000000     0.250000000000     0          
O41      O      0.707750000000     0.599250000000     0.250000000000     0          
O42      O      0.599250000000     0.792250000000     0.250000000000     0          
O43      O      0.792250000000     0.900750000000     0.250000000000     0          
O44      O      0.696900000000     0.655500000000     0.066050000000     0          
O45      O      0.844500000000     0.696900000000     0.066050000000     0          
O46      O      0.803100000000     0.844500000000     0.066050000000     0          
O47      O      0.655500000000     0.803100000000     0.066050000000     0          
O48      O      0.803100000000     0.655500000000     0.316050000000     0          
O49      O      0.655500000000     0.696900000000     0.316050000000     0          
O50      O      0.696900000000     0.844500000000     0.316050000000     0          
O51      O      0.844500000000     0.803100000000     0.316050000000     0          
O52      O      0.803100000000     0.844500000000     0.433950000000     0          
O53      O      0.655500000000     0.803100000000     0.433950000000     0          
O54      O      0.696900000000     0.655500000000     0.433950000000     0          
O55      O      0.844500000000     0.696900000000     0.433950000000     0          
O56      O      0.696900000000     0.844500000000     0.183950000000     0          
O57      O      0.844500000000     0.803100000000     0.183950000000     0          
O58      O      0.803100000000     0.655500000000     0.183950000000     0          
O59      O      0.655500000000     0.696900000000     0.183950000000     0          
Si0      Si     0.626700000000     0.715400000000     0.555700000000     0          
Si1      Si     0.784600000000     0.626700000000     0.555700000000     0          
Si2      Si     0.873300000000     0.784600000000     0.555700000000     0          
Si3      Si     0.715400000000     0.873300000000     0.555700000000     0          
Si4      Si     0.873300000000     0.715400000000     0.805700000000     0          
Si5      Si     0.715400000000     0.626700000000     0.805700000000     0          
Si6      Si     0.626700000000     0.784600000000     0.805700000000     0          
Si7      Si     0.784600000000     0.873300000000     0.805700000000     0          
Si8      Si     0.873300000000     0.784600000000     0.944300000000     0          
Si9      Si     0.715400000000     0.873300000000     0.944300000000     0          
Si10     Si     0.626700000000     0.715400000000     0.944300000000     0          
Si11     Si     0.784600000000     0.626700000000     0.944300000000     0          
Si12     Si     0.626700000000     0.784600000000     0.694300000000     0          
Si13     Si     0.784600000000     0.873300000000     0.694300000000     0          
Si14     Si     0.873300000000     0.715400000000     0.694300000000     0          
Si15     Si     0.715400000000     0.626700000000     0.694300000000     0          
Si16     Si     0.500000000000     0.750000000000     0.625000000000     0          
Si17     Si     0.750000000000     0.500000000000     0.625000000000     0          
Si18     Si     0.500000000000     0.750000000000     0.875000000000     0          
Si19     Si     0.750000000000     0.500000000000     0.875000000000     0          
O20      O      0.554450000000     0.803700000000     0.658900000000     0          
O21      O      0.696300000000     0.554450000000     0.658900000000     0          
O22      O      0.945550000000     0.696300000000     0.658900000000     0          
O23      O      0.803700000000     0.945550000000     0.658900000000     0          
O24      O      0.945550000000     0.803700000000     0.908900000000     0          
O25      O      0.803700000000     0.554450000000     0.908900000000     0          
O26      O      0.554450000000     0.696300000000     0.908900000000     0          
O27      O      0.696300000000     0.945550000000     0.908900000000     0          
O28      O      0.945550000000     0.696300000000     0.841100000000     0          
O29      O      0.803700000000     0.945550000000     0.841100000000     0          
O30      O      0.554450000000     0.803700000000     0.841100000000     0          
O31      O      0.696300000000     0.554450000000     0.841100000000     0          
O32      O      0.554450000000     0.696300000000     0.591100000000     0          
O33      O      0.696300000000     0.945550000000     0.591100000000     0          
O34      O      0.945550000000     0.803700000000     0.591100000000     0          
O35      O      0.803700000000     0.554450000000     0.591100000000     0          
O36      O      0.599250000000     0.707750000000     0.500000000000     0          
O37      O      0.792250000000     0.599250000000     0.500000000000     0          
O38      O      0.900750000000     0.792250000000     0.500000000000     0          
O39      O      0.707750000000     0.900750000000     0.500000000000     0          
O40      O      0.900750000000     0.707750000000     0.750000000000     0          
O41      O      0.707750000000     0.599250000000     0.750000000000     0          
O42      O      0.599250000000     0.792250000000     0.750000000000     0          
O43      O      0.792250000000     0.900750000000     0.750000000000     0          
O44      O      0.696900000000     0.655500000000     0.566050000000     0          
O45      O      0.844500000000     0.696900000000     0.566050000000     0          
O46      O      0.803100000000     0.844500000000     0.566050000000     0          
O47      O      0.655500000000     0.803100000000     0.566050000000     0          
O48      O      0.803100000000     0.655500000000     0.816050000000     0          
O49      O      0.655500000000     0.696900000000     0.816050000000     0          
O50      O      0.696900000000     0.844500000000     0.816050000000     0          
O51      O      0.844500000000     0.803100000000     0.816050000000     0          
O52      O      0.803100000000     0.844500000000     0.933950000000     0          
O53      O      0.655500000000     0.803100000000     0.933950000000     0          
O54      O      0.696900000000     0.655500000000     0.933950000000     0          
O55      O      0.844500000000     0.696900000000     0.933950000000     0          
O56      O      0.696900000000     0.844500000000     0.683950000000     0          
O57      O      0.844500000000     0.803100000000     0.683950000000     0          
O58      O      0.803100000000     0.655500000000     0.683950000000     0          
O59      O      0.655500000000     0.696900000000     0.683950000000     0          


